Compile:

javac ClientSegmenter.java




Execute:

java ClientSegmenter



Input file: hashtags.txt
Output file: output.txt

Google n-gram unigram corpus (subset): count_1w.txt